Version 4
SHEET 1 1236 680
WIRE 704 32 560 32
WIRE 704 80 704 32
WIRE 1136 224 1088 224
WIRE 160 256 64 256
WIRE 208 256 160 256
WIRE 464 256 288 256
WIRE 704 256 704 160
WIRE 704 256 656 256
WIRE 800 256 704 256
WIRE 864 256 800 256
WIRE 64 272 64 256
WIRE 160 352 64 352
WIRE 464 352 160 352
WIRE 816 352 656 352
WIRE 160 368 160 352
FLAG 160 368 0
FLAG 816 352 0
FLAG 560 112 0
FLAG 1136 224 COUNT
FLAG 800 256 clock
FLAG 160 256 V1out
SYMBOL voltage 64 256 R0
WINDOW 3 -135 152 Left 2
WINDOW 123 0 0 Left 0
WINDOW 39 0 0 Left 0
SYMATTR InstName V1
SYMATTR Value PULSE(0 5 0 0 0 1.8m 2m)
SYMBOL res 304 240 R90
WINDOW 0 0 56 VBottom 2
WINDOW 3 32 56 VTop 2
SYMATTR InstName R1
SYMATTR Value 1.52k
SYMBOL Optos\\PC817A 560 304 R0
SYMATTR InstName U1
SYMBOL res 688 64 R0
SYMATTR InstName R2
SYMATTR Value 4.8k
SYMBOL voltage 560 16 R0
WINDOW 123 0 0 Left 0
WINDOW 39 0 0 Left 0
SYMATTR InstName V2
SYMATTR Value 5
SYMBOL Digital\\counter 944 224 R0
WINDOW 3 0 0 Invisible 0
SYMATTR InstName A1
SYMATTR Value cycles=3
TEXT 40 164 Left 2 !.tran 10m
